*SPEF "ieee 1481-1999"
*DESIGN "miniRISC"
*DATE "12:40:29 Friday December 26, 2025"
*VENDOR "The OpenROAD Project"
*PROGRAM "OpenROAD"
*VERSION "24Q3-10178-g83ff256997"
*DESIGN_FLOW "NAME_SCOPE LOCAL" "PIN_CAP NONE"
*DIVIDER /
*DELIMITER :
*BUS_DELIMITER []
*T_UNIT 1 NS
*C_UNIT 1 PF
*R_UNIT 1 OHM
*L_UNIT 1 HENRY

*NAME_MAP
*1 GPR\[0\]\[0\]
*2 GPR\[0\]\[10\]
*3 GPR\[0\]\[11\]
*4 GPR\[0\]\[12\]
*5 GPR\[0\]\[13\]
*6 GPR\[0\]\[14\]
*7 GPR\[0\]\[15\]
*8 GPR\[0\]\[1\]
*9 GPR\[0\]\[2\]
*10 GPR\[0\]\[3\]
*11 GPR\[0\]\[4\]
*12 GPR\[0\]\[5\]
*13 GPR\[0\]\[6\]
*14 GPR\[0\]\[7\]
*15 GPR\[0\]\[8\]
*16 GPR\[0\]\[9\]
*17 GPR\[1\]\[0\]
*18 GPR\[1\]\[10\]
*19 GPR\[1\]\[11\]
*20 GPR\[1\]\[12\]
*21 GPR\[1\]\[13\]
*22 GPR\[1\]\[14\]
*23 GPR\[1\]\[15\]
*24 GPR\[1\]\[1\]
*25 GPR\[1\]\[2\]
*26 GPR\[1\]\[3\]
*27 GPR\[1\]\[4\]
*28 GPR\[1\]\[5\]
*29 GPR\[1\]\[6\]
*30 GPR\[1\]\[7\]
*31 GPR\[1\]\[8\]
*32 GPR\[1\]\[9\]
*33 GPR\[2\]\[0\]
*34 GPR\[2\]\[10\]
*35 GPR\[2\]\[11\]
*36 GPR\[2\]\[12\]
*37 GPR\[2\]\[13\]
*38 GPR\[2\]\[14\]
*39 GPR\[2\]\[15\]
*40 GPR\[2\]\[1\]
*41 GPR\[2\]\[2\]
*42 GPR\[2\]\[3\]
*43 GPR\[2\]\[4\]
*44 GPR\[2\]\[5\]
*45 GPR\[2\]\[6\]
*46 GPR\[2\]\[7\]
*47 GPR\[2\]\[8\]
*48 GPR\[2\]\[9\]
*49 GPR\[3\]\[0\]
*50 GPR\[3\]\[10\]
*51 GPR\[3\]\[11\]
*52 GPR\[3\]\[12\]
*53 GPR\[3\]\[13\]
*54 GPR\[3\]\[14\]
*55 GPR\[3\]\[15\]
*56 GPR\[3\]\[1\]
*57 GPR\[3\]\[2\]
*58 GPR\[3\]\[3\]
*59 GPR\[3\]\[4\]
*60 GPR\[3\]\[5\]
*61 GPR\[3\]\[6\]
*62 GPR\[3\]\[7\]
*63 GPR\[3\]\[8\]
*64 GPR\[3\]\[9\]
*65 IR\[0\]
*67 clknet_3_5__leaf_clk
*72 IR\[16\]
*73 IR\[17\]
*74 IR\[18\]
*76 IR\[1\]
*79 IR\[22\]
*80 IR\[23\]
*81 IR\[24\]
*84 IR\[27\]
*85 IR\[28\]
*87 IR\[2\]
*88 IR\[30\]
*89 net35
*93 clknet_3_7__leaf_clk
*96 clknet_3_6__leaf_clk
*97 PC\[0\]
*98 PC\[1\]
*99 PC\[2\]
*100 PC\[3\]
*101 _0000_
*102 _0001_
*103 _0002_
*104 _0003_
*105 _0004_
*106 _0005_
*107 _0006_
*108 _0007_
*109 _0008_
*110 _0009_
*111 _0010_
*112 _0011_
*113 _0012_
*114 _0013_
*115 _0014_
*116 _0015_
*117 _0016_
*118 _0017_
*119 _0018_
*120 _0019_
*121 _0020_
*122 _0021_
*123 _0022_
*124 _0023_
*125 _0024_
*126 _0025_
*127 _0026_
*128 _0027_
*129 _0028_
*130 _0029_
*131 _0030_
*132 _0031_
*133 _0032_
*134 _0033_
*135 _0034_
*136 _0035_
*137 _0036_
*138 _0037_
*139 _0038_
*140 _0039_
*141 _0040_
*142 _0041_
*143 _0042_
*144 _0043_
*145 _0044_
*146 _0045_
*147 _0046_
*148 _0047_
*149 _0048_
*150 _0049_
*151 _0050_
*152 _0051_
*153 _0052_
*154 _0053_
*155 _0054_
*156 _0055_
*157 _0056_
*158 _0057_
*159 _0058_
*160 _0059_
*161 _0060_
*162 _0061_
*163 _0062_
*164 _0063_
*165 _0064_
*166 _0065_
*167 _0066_
*168 _0067_
*169 _0068_
*170 _0069_
*171 _0070_
*172 _0071_
*173 _0072_
*174 _0073_
*175 _0074_
*176 _0075_
*177 _0076_
*178 _0077_
*179 _0078_
*180 _0079_
*181 _0080_
*182 _0081_
*183 _0082_
*184 _0083_
*185 _0084_
*186 _0085_
*187 _0086_
*188 _0087_
*189 _0088_
*190 _0089_
*191 _0090_
*192 _0091_
*193 _0092_
*194 _0093_
*195 _0094_
*196 _0095_
*197 _0096_
*198 _0097_
*199 _0098_
*200 _0099_
*201 _0100_
*202 _0101_
*203 _0102_
*204 _0103_
*205 _0104_
*206 _0105_
*207 _0106_
*208 _0107_
*209 _0108_
*210 _0109_
*211 _0110_
*212 _0111_
*213 _0112_
*214 _0113_
*215 _0114_
*216 _0115_
*217 _0116_
*218 _0117_
*219 _0118_
*220 _0119_
*221 _0120_
*222 _0121_
*223 _0122_
*224 _0123_
*225 _0124_
*226 _0125_
*227 _0126_
*228 _0127_
*229 _0128_
*230 _0129_
*231 _0130_
*232 _0131_
*233 _0132_
*234 _0133_
*235 _0134_
*236 _0135_
*237 _0136_
*238 _0137_
*239 _0138_
*240 _0139_
*241 _0140_
*242 _0141_
*243 _0142_
*244 _0143_
*245 _0144_
*246 _0145_
*247 _0146_
*248 _0147_
*249 _0148_
*250 _0149_
*251 _0150_
*252 _0151_
*253 _0152_
*254 _0153_
*255 _0154_
*256 _0155_
*257 _0156_
*258 _0157_
*259 _0158_
*260 _0159_
*261 _0160_
*262 _0161_
*263 _0162_
*264 _0163_
*265 _0164_
*266 _0165_
*267 _0166_
*268 _0167_
*269 _0168_
*270 _0169_
*271 _0170_
*272 _0171_
*273 _0172_
*274 _0173_
*275 _0174_
*276 _0175_
*277 _0176_
*278 _0177_
*279 _0178_
*280 _0179_
*281 _0180_
*282 _0181_
*283 _0182_
*284 _0183_
*285 _0184_
*286 _0185_
*287 _0186_
*288 _0187_
*289 _0188_
*290 _0189_
*291 _0190_
*292 _0191_
*293 _0192_
*294 _0193_
*295 _0194_
*296 _0195_
*297 _0196_
*298 _0197_
*299 _0198_
*300 _0199_
*301 _0200_
*302 _0201_
*303 _0202_
*304 _0203_
*305 _0204_
*306 _0205_
*307 _0206_
*308 _0207_
*309 _0208_
*310 _0209_
*311 _0210_
*312 _0211_
*313 _0212_
*314 _0213_
*315 _0214_
*316 _0215_
*317 _0216_
*318 _0217_
*319 _0218_
*320 _0219_
*321 _0220_
*322 _0221_
*323 _0222_
*324 _0223_
*325 _0224_
*326 _0225_
*327 _0226_
*328 _0227_
*329 _0228_
*330 _0229_
*331 _0230_
*332 _0231_
*333 _0232_
*334 _0233_
*335 _0234_
*336 _0235_
*337 _0236_
*338 _0237_
*339 _0238_
*340 _0239_
*341 _0240_
*342 _0241_
*343 _0242_
*344 _0243_
*345 _0244_
*346 _0245_
*347 _0246_
*348 _0247_
*349 _0248_
*350 _0249_
*351 _0250_
*352 _0251_
*353 _0252_
*354 _0253_
*355 _0254_
*356 _0255_
*357 _0256_
*358 _0257_
*359 _0258_
*360 _0259_
*361 _0260_
*362 _0261_
*363 _0262_
*364 _0263_
*365 _0264_
*366 _0265_
*367 _0266_
*368 _0267_
*369 _0268_
*370 _0269_
*371 _0270_
*372 _0271_
*373 _0272_
*374 _0273_
*375 _0274_
*376 _0275_
*378 _0277_
*379 _0278_
*380 _0279_
*381 _0280_
*382 _0281_
*383 _0282_
*384 _0283_
*386 _0285_
*387 _0286_
*388 _0287_
*389 _0288_
*390 _0289_
*391 _0290_
*392 _0291_
*398 _0297_
*399 _0298_
*400 _0299_
*402 _0301_
*403 _0302_
*404 _0303_
*405 _0304_
*406 _0305_
*408 _0307_
*409 _0308_
*410 _0309_
*411 _0310_
*413 _0312_
*414 _0313_
*415 _0314_
*417 _0316_
*418 _0317_
*419 _0318_
*420 _0319_
*421 _0320_
*422 _0321_
*423 _0322_
*424 _0323_
*425 _0324_
*426 _0325_
*427 _0326_
*428 _0327_
*429 _0328_
*430 _0329_
*431 _0330_
*432 _0331_
*433 _0332_
*435 _0334_
*436 _0335_
*437 _0336_
*438 _0337_
*439 _0338_
*441 _0340_
*442 _0341_
*443 _0342_
*444 _0343_
*445 _0344_
*446 _0345_
*447 _0346_
*448 _0347_
*449 _0348_
*450 _0349_
*451 _0350_
*452 _0351_
*453 _0352_
*454 _0353_
*455 _0354_
*456 _0355_
*457 _0356_
*458 _0357_
*459 _0358_
*460 _0359_
*461 _0360_
*462 _0361_
*463 _0362_
*464 _0363_
*465 _0364_
*466 _0365_
*467 _0366_
*468 _0367_
*469 _0368_
*470 _0369_
*471 _0370_
*472 _0371_
*473 _0372_
*474 _0373_
*475 _0374_
*476 _0375_
*477 _0376_
*478 _0377_
*479 _0378_
*480 _0379_
*481 _0380_
*482 _0381_
*483 _0382_
*484 _0383_
*485 _0384_
*486 _0385_
*487 _0386_
*488 _0387_
*489 _0388_
*490 _0389_
*491 _0390_
*492 _0391_
*493 _0392_
*494 _0393_
*495 _0394_
*496 _0395_
*497 _0396_
*498 _0397_
*499 _0398_
*500 _0399_
*501 _0400_
*502 _0401_
*503 _0402_
*504 _0403_
*505 _0404_
*506 _0405_
*507 _0406_
*508 _0407_
*509 _0408_
*510 _0409_
*511 _0410_
*512 _0411_
*513 _0412_
*515 _0414_
*516 _0415_
*517 _0416_
*518 _0417_
*519 _0418_
*520 _0419_
*521 _0420_
*522 _0421_
*523 _0422_
*524 _0423_
*525 _0424_
*526 _0425_
*527 _0426_
*528 _0427_
*529 _0428_
*530 _0429_
*531 _0430_
*532 _0431_
*533 _0432_
*534 _0433_
*535 _0434_
*536 _0435_
*537 _0436_
*538 _0437_
*539 _0438_
*540 _0439_
*541 _0440_
*542 _0441_
*543 _0442_
*544 _0443_
*545 _0444_
*546 _0445_
*547 _0446_
*548 _0447_
*549 _0448_
*550 _0449_
*551 _0450_
*552 _0451_
*553 _0452_
*554 _0453_
*555 _0454_
*556 _0455_
*557 _0456_
*558 _0457_
*559 _0458_
*560 _0459_
*561 _0460_
*562 _0461_
*563 _0462_
*564 _0463_
*565 _0464_
*566 _0465_
*567 _0466_
*568 _0467_
*569 _0468_
*570 _0469_
*571 _0470_
*572 _0471_
*573 _0472_
*574 _0473_
*575 _0474_
*576 _0475_
*577 _0476_
*578 _0477_
*579 _0478_
*580 _0479_
*581 _0480_
*582 _0481_
*583 _0482_
*584 _0483_
*585 _0484_
*586 _0485_
*587 _0486_
*588 _0487_
*589 _0488_
*590 _0489_
*591 _0490_
*592 _0491_
*593 _0492_
*594 _0493_
*595 _0494_
*596 _0495_
*597 _0496_
*598 _0497_
*599 _0498_
*600 _0499_
*601 _0500_
*602 _0501_
*603 _0502_
*604 _0503_
*605 _0504_
*606 _0505_
*607 _0506_
*608 _0507_
*609 _0508_
*610 _0509_
*611 _0510_
*612 _0511_
*613 _0512_
*614 _0513_
*615 _0514_
*616 _0515_
*617 _0516_
*618 _0517_
*619 _0518_
*620 _0519_
*621 _0520_
*622 _0521_
*623 _0522_
*624 _0523_
*625 _0524_
*626 _0525_
*627 _0526_
*628 _0527_
*629 _0528_
*630 _0529_
*631 _0530_
*632 _0531_
*633 _0532_
*634 _0533_
*635 _0534_
*636 _0535_
*637 _0536_
*638 _0537_
*639 _0538_
*640 _0539_
*641 _0540_
*642 _0541_
*643 _0542_
*644 _0543_
*645 _0544_
*646 _0545_
*647 _0546_
*648 _0547_
*649 _0548_
*650 _0549_
*651 _0550_
*652 _0551_
*653 _0552_
*654 _0553_
*655 _0554_
*656 _0555_
*657 _0556_
*658 _0557_
*659 _0558_
*660 _0559_
*661 _0560_
*662 _0561_
*663 _0562_
*664 _0563_
*665 _0564_
*666 _0565_
*667 _0566_
*668 _0567_
*669 _0568_
*670 _0569_
*671 _0570_
*672 _0571_
*673 _0572_
*674 _0573_
*675 _0574_
*676 _0575_
*677 _0576_
*678 _0577_
*679 _0578_
*680 _0579_
*681 _0580_
*682 _0581_
*683 _0582_
*684 _0583_
*685 _0584_
*686 _0585_
*687 _0586_
*688 _0587_
*689 _0588_
*690 _0589_
*691 _0590_
*692 _0591_
*693 _0592_
*694 _0593_
*695 _0594_
*696 _0595_
*697 _0596_
*698 _0597_
*699 _0598_
*700 _0599_
*701 _0600_
*702 _0601_
*703 _0602_
*704 _0603_
*705 _0604_
*706 _0605_
*707 _0606_
*708 _0607_
*709 _0608_
*710 _0609_
*711 _0610_
*712 _0611_
*713 _0612_
*714 _0613_
*715 _0614_
*716 _0615_
*717 _0616_
*718 _0617_
*719 _0618_
*720 _0619_
*721 _0620_
*722 _0621_
*723 _0622_
*724 _0623_
*725 _0624_
*726 _0625_
*727 _0626_
*728 _0627_
*729 _0628_
*730 _0629_
*731 _0630_
*732 _0631_
*733 _0632_
*734 _0633_
*735 _0634_
*736 _0635_
*737 _0636_
*738 _0637_
*739 _0638_
*740 _0639_
*741 _0640_
*742 _0641_
*743 _0642_
*744 _0643_
*745 _0644_
*746 _0645_
*747 _0646_
*748 _0647_
*749 _0648_
*750 _0649_
*751 _0650_
*752 _0651_
*753 _0652_
*754 _0653_
*755 _0654_
*756 _0655_
*757 _0656_
*758 _0657_
*759 _0658_
*760 _0659_
*761 _0660_
*762 _0661_
*763 _0662_
*764 _0663_
*765 _0664_
*766 _0665_
*767 _0666_
*768 _0667_
*769 _0668_
*770 _0669_
*771 _0670_
*772 _0671_
*773 _0672_
*774 _0673_
*775 _0674_
*776 _0675_
*777 _0676_
*778 _0677_
*779 _0678_
*780 _0679_
*781 _0680_
*782 _0681_
*783 _0682_
*784 _0683_
*785 _0684_
*786 _0685_
*787 _0686_
*788 _0687_
*789 _0688_
*790 _0689_
*791 _0690_
*792 _0691_
*793 _0692_
*794 _0693_
*795 _0694_
*796 _0695_
*797 _0696_
*798 _0697_
*799 _0698_
*800 _0699_
*801 _0700_
*802 _0701_
*803 _0702_
*804 _0703_
*805 _0704_
*806 _0705_
*807 _0706_
*808 _0707_
*809 _0708_
*810 _0709_
*811 _0710_
*812 _0711_
*813 _0712_
*814 _0713_
*815 _0714_
*816 _0715_
*817 _0716_
*818 _0717_
*819 _0718_
*820 _0719_
*821 _0720_
*822 _0721_
*823 _0722_
*824 _0723_
*825 _0724_
*826 _0725_
*827 _0726_
*828 _0727_
*829 _0728_
*830 _0729_
*831 _0730_
*832 _0731_
*833 _0732_
*834 _0733_
*835 _0734_
*836 _0735_
*837 _0736_
*838 _0737_
*839 _0738_
*840 _0739_
*841 _0740_
*842 _0741_
*843 _0742_
*844 _0743_
*845 _0744_
*846 _0745_
*847 _0746_
*848 _0747_
*849 _0748_
*850 _0749_
*851 _0750_
*852 _0751_
*853 _0752_
*854 _0753_
*855 _0754_
*856 _0755_
*857 _0756_
*858 _0757_
*859 _0758_
*860 _0759_
*861 _0760_
*862 _0761_
*863 _0762_
*864 _0763_
*865 _0764_
*866 _0765_
*867 _0766_
*868 _0767_
*869 _0768_
*870 _0769_
*871 _0770_
*872 _0771_
*873 _0772_
*874 _0773_
*875 _0774_
*876 _0775_
*877 _0776_
*878 _0777_
*879 _0778_
*880 _0779_
*881 _0780_
*882 _0781_
*883 _0782_
*884 _0783_
*885 _0784_
*886 _0785_
*887 _0786_
*888 _0787_
*889 _0788_
*890 _0789_
*891 _0790_
*892 _0791_
*893 _0792_
*894 _0793_
*895 _0794_
*896 _0795_
*897 _0796_
*898 _0797_
*899 _0798_
*900 _0799_
*901 _0800_
*902 _0801_
*903 _0802_
*904 _0803_
*905 _0804_
*906 _0805_
*907 _0806_
*908 _0807_
*909 _0808_
*910 _0809_
*911 _0810_
*912 _0811_
*913 _0812_
*914 _0813_
*915 _0814_
*916 _0815_
*917 _0816_
*918 _0817_
*919 _0818_
*920 _0819_
*921 _0820_
*922 _0821_
*923 _0822_
*924 _0823_
*925 _0824_
*926 _0825_
*927 _0826_
*928 _0827_
*929 _0828_
*930 _0829_
*931 _0830_
*932 _0831_
*933 _0832_
*934 _0833_
*935 _0834_
*936 _0835_
*937 _0836_
*938 _0837_
*939 _0838_
*940 _0839_
*941 _0840_
*942 _0841_
*943 _0842_
*944 _0843_
*945 _0844_
*946 _0845_
*947 _0846_
*948 _0847_
*949 _0848_
*950 _0849_
*951 _0850_
*952 _0851_
*953 _0852_
*954 _0853_
*955 _0854_
*956 _0855_
*957 _0856_
*958 _0857_
*959 _0858_
*960 _0859_
*961 _0860_
*962 _0861_
*963 _0862_
*964 _0863_
*965 _0864_
*966 _0865_
*967 _0866_
*968 _0867_
*969 _0868_
*970 _0869_
*971 _0870_
*972 _0871_
*973 _0872_
*974 _0873_
*975 _0874_
*976 _0875_
*977 _0876_
*978 _0877_
*979 _0878_
*980 _0879_
*981 _0880_
*982 _0881_
*983 _0882_
*984 _0883_
*985 _0884_
*986 _0885_
*987 _0886_
*988 _0887_
*989 _0888_
*990 _0889_
*991 _0890_
*992 _0891_
*993 _0892_
*994 _0893_
*995 _0894_
*996 _0895_
*997 _0896_
*998 _0897_
*999 _0898_
*1000 _0899_
*1001 _0900_
*1002 _0901_
*1003 _0902_
*1004 _0903_
*1005 _0904_
*1006 _0905_
*1007 _0906_
*1008 _0907_
*1009 _0908_
*1010 _0909_
*1011 _0910_
*1012 _0911_
*1013 _0912_
*1014 _0913_
*1015 _0914_
*1016 _0915_
*1017 _0916_
*1019 _0918_
*1021 _0920_
*1022 _0921_
*1023 _0922_
*1024 _0923_
*1025 _0924_
*1026 _0925_
*1027 _0926_
*1028 _0927_
*1029 _0928_
*1030 _0929_
*1031 _0930_
*1032 _0931_
*1033 _0932_
*1034 _0933_
*1035 _0934_
*1036 _0935_
*1037 _0936_
*1038 _0937_
*1039 _0938_
*1040 _0939_
*1041 _0940_
*1042 _0941_
*1043 _0942_
*1044 _0943_
*1045 _0944_
*1046 _0945_
*1047 _0946_
*1048 _0947_
*1049 _0948_
*1050 _0949_
*1051 _0950_
*1052 _0951_
*1053 _0952_
*1054 _0953_
*1055 _0954_
*1056 _0955_
*1057 _0956_
*1058 _0957_
*1060 clk
*1061 count\[0\]
*1062 count\[1\]
*1063 count\[2\]
*1064 din[0]
*1065 din[10]
*1066 din[11]
*1067 din[12]
*1068 din[13]
*1069 din[14]
*1070 din[15]
*1071 din[1]
*1072 din[2]
*1073 din[3]
*1074 din[4]
*1075 din[5]
*1076 din[6]
*1077 din[7]
*1078 din[8]
*1079 din[9]
*1080 dout[0]
*1081 dout[10]
*1082 dout[11]
*1083 dout[12]
*1084 dout[13]
*1085 dout[14]
*1086 dout[15]
*1087 dout[1]
*1088 dout[2]
*1089 dout[3]
*1090 dout[4]
*1091 dout[5]
*1092 dout[6]
*1093 dout[7]
*1094 dout[8]
*1095 dout[9]
*1096 jmp_flag
*1097 state\[0\]
*1098 state\[1\]
*1099 state\[2\]
*1100 stop
*1101 sys_rst
*1102 zero
*1103 net
*1104 net1
*1105 net2
*1106 net3
*1107 net4
*1108 net5
*1109 net6
*1110 net7
*1111 net8
*1112 net9
*1113 net10
*1114 net11
*1115 net12
*1116 net13
*1117 net14
*1118 net15
*1119 net16
*1120 net17
*1121 net18
*1122 clknet_3_4__leaf_clk
*1123 clknet_3_3__leaf_clk
*1124 clknet_3_2__leaf_clk
*1125 clknet_3_1__leaf_clk
*1126 clknet_3_0__leaf_clk
*1127 clknet_0_clk
*1128 net49
*1129 net48
*1130 net47
*1131 net42
*1132 net51
*1133 net50
*1134 net46
*1135 net45
*1136 net44
*1137 net43
*1138 GPR\[0\]\[0\]\$_DFFE_PP_
*1139 GPR\[0\]\[10\]\$_DFFE_PP_
*1140 GPR\[0\]\[11\]\$_DFFE_PP_
*1141 GPR\[0\]\[12\]\$_DFFE_PP_
*1142 GPR\[0\]\[13\]\$_DFFE_PP_
*1143 GPR\[0\]\[14\]\$_DFFE_PP_
*1144 GPR\[0\]\[15\]\$_DFFE_PP_
*1145 GPR\[0\]\[1\]\$_DFFE_PP_
*1146 GPR\[0\]\[2\]\$_DFFE_PP_
*1147 GPR\[0\]\[3\]\$_DFFE_PP_
*1148 GPR\[0\]\[4\]\$_DFFE_PP_
*1149 GPR\[0\]\[5\]\$_DFFE_PP_
*1150 GPR\[0\]\[6\]\$_DFFE_PP_
*1151 GPR\[0\]\[7\]\$_DFFE_PP_
*1152 GPR\[0\]\[8\]\$_DFFE_PP_
*1153 GPR\[0\]\[9\]\$_DFFE_PP_
*1154 GPR\[1\]\[0\]\$_DFFE_PP_
*1155 GPR\[1\]\[10\]\$_DFFE_PP_
*1156 GPR\[1\]\[11\]\$_DFFE_PP_
*1157 GPR\[1\]\[12\]\$_DFFE_PP_
*1158 GPR\[1\]\[13\]\$_DFFE_PP_
*1159 GPR\[1\]\[14\]\$_DFFE_PP_
*1160 GPR\[1\]\[15\]\$_DFFE_PP_
*1161 GPR\[1\]\[1\]\$_DFFE_PP_
*1162 GPR\[1\]\[2\]\$_DFFE_PP_
*1163 GPR\[1\]\[3\]\$_DFFE_PP_
*1164 GPR\[1\]\[4\]\$_DFFE_PP_
*1165 GPR\[1\]\[5\]\$_DFFE_PP_
*1166 GPR\[1\]\[6\]\$_DFFE_PP_
*1167 GPR\[1\]\[7\]\$_DFFE_PP_
*1168 GPR\[1\]\[8\]\$_DFFE_PP_
*1169 GPR\[1\]\[9\]\$_DFFE_PP_
*1170 GPR\[2\]\[0\]\$_DFFE_PP_
*1171 GPR\[2\]\[10\]\$_DFFE_PP_
*1172 GPR\[2\]\[11\]\$_DFFE_PP_
*1173 GPR\[2\]\[12\]\$_DFFE_PP_
*1174 GPR\[2\]\[13\]\$_DFFE_PP_
*1175 GPR\[2\]\[14\]\$_DFFE_PP_
*1176 GPR\[2\]\[15\]\$_DFFE_PP_
*1177 GPR\[2\]\[1\]\$_DFFE_PP_
*1178 GPR\[2\]\[2\]\$_DFFE_PP_
*1179 GPR\[2\]\[3\]\$_DFFE_PP_
*1180 GPR\[2\]\[4\]\$_DFFE_PP_
*1181 GPR\[2\]\[5\]\$_DFFE_PP_
*1182 GPR\[2\]\[6\]\$_DFFE_PP_
*1183 GPR\[2\]\[7\]\$_DFFE_PP_
*1184 GPR\[2\]\[8\]\$_DFFE_PP_
*1185 GPR\[2\]\[9\]\$_DFFE_PP_
*1186 GPR\[3\]\[0\]\$_DFFE_PP_
*1187 GPR\[3\]\[10\]\$_DFFE_PP_
*1188 GPR\[3\]\[11\]\$_DFFE_PP_
*1189 GPR\[3\]\[12\]\$_DFFE_PP_
*1190 GPR\[3\]\[13\]\$_DFFE_PP_
*1191 GPR\[3\]\[14\]\$_DFFE_PP_
*1192 GPR\[3\]\[15\]\$_DFFE_PP_
*1193 GPR\[3\]\[1\]\$_DFFE_PP_
*1194 GPR\[3\]\[2\]\$_DFFE_PP_
*1195 GPR\[3\]\[3\]\$_DFFE_PP_
*1196 GPR\[3\]\[4\]\$_DFFE_PP_
*1197 GPR\[3\]\[5\]\$_DFFE_PP_
*1198 GPR\[3\]\[6\]\$_DFFE_PP_
*1199 GPR\[3\]\[7\]\$_DFFE_PP_
*1200 GPR\[3\]\[8\]\$_DFFE_PP_
*1201 GPR\[3\]\[9\]\$_DFFE_PP_
*1202 IR\[0\]\$_SDFFE_PP0P_
*1203 IR\[16\]\$_SDFFE_PP0P_
*1204 IR\[17\]\$_SDFFE_PP0P_
*1205 IR\[18\]\$_SDFFE_PP0P_
*1206 IR\[1\]\$_SDFFE_PP0P_
*1207 IR\[22\]\$_SDFFE_PP0P_
*1208 IR\[23\]\$_SDFFE_PP0P_
*1209 IR\[24\]\$_SDFFE_PP0P_
*1210 IR\[27\]\$_SDFFE_PP0P_
*1211 IR\[28\]\$_SDFFE_PP0P_
*1212 IR\[2\]\$_SDFFE_PP0P_
*1213 IR\[30\]\$_SDFFE_PP0P_
*1214 PC\[0\]\$_SDFFE_PP0P_
*1215 PC\[1\]\$_SDFFE_PP0P_
*1216 PC\[2\]\$_SDFFE_PP0P_
*1217 PC\[3\]\$_SDFFE_PP0P_
*1218 _0959_
*1219 _0960_
*1220 _0961_
*1221 _0962_
*1222 FILLER_0_159
*1223 _0964_
*1224 _0965_
*1225 _0966_
*1226 _0967_
*1227 _0968_
*1228 _0969_
*1229 _0970_
*1230 FILLER_0_151
*1231 _0972_
*1232 _0973_
*1233 _0974_
*1234 _0975_
*1235 _0976_
*1236 _0977_
*1237 _0978_
*1238 _0979_
*1239 _0980_
*1240 _0981_
*1241 _0982_
*1242 FILLER_0_149
*1243 FILLER_0_145
*1244 _0985_
*1245 FILLER_0_137
*1246 FILLER_0_129
*1247 FILLER_0_121
*1248 _0989_
*1249 _0990_
*1250 _0991_
*1251 FILLER_0_119
*1252 _0993_
*1253 _0994_
*1254 _0995_
*1255 _0996_
*1256 _0997_
*1257 _0998_
*1258 FILLER_0_117
*1259 _1000_
*1260 _1001_
*1261 _1002_
*1262 _1003_
*1263 FILLER_0_109
*1264 _1005_
*1265 _1006_
*1266 _1007_
*1267 _1008_
*1268 FILLER_0_91
*1269 _1010_
*1270 _1011_
*1271 _1012_
*1272 _1013_
*1273 _1014_
*1274 _1015_
*1275 _1016_
*1276 _1017_
*1277 _1018_
*1278 _1019_
*1279 _1020_
*1280 _1021_
*1281 _1022_
*1282 _1023_
*1283 _1024_
*1284 _1025_
*1285 _1026_
*1286 _1027_
*1287 _1028_
*1288 FILLER_0_88
*1289 _1030_
*1290 _1031_
*1291 _1032_
*1292 _1033_
*1293 _1034_
*1294 _1035_
*1295 FILLER_0_80
*1296 _1037_
*1297 _1038_
*1298 _1039_
*1299 _1040_
*1300 _1041_
*1301 _1042_
*1302 _1043_
*1303 _1044_
*1304 _1045_
*1305 _1046_
*1306 _1047_
*1307 _1048_
*1308 _1049_
*1309 _1050_
*1310 _1051_
*1311 _1052_
*1312 _1053_
*1313 _1054_
*1314 _1055_
*1315 _1056_
*1316 _1057_
*1317 _1058_
*1318 _1059_
*1319 _1060_
*1320 _1061_
*1321 _1062_
*1322 _1063_
*1323 _1064_
*1324 _1065_
*1325 _1066_
*1326 _1067_
*1327 _1068_
*1328 _1069_
*1329 _1070_
*1330 _1071_
*1331 _1072_
*1332 _1073_
*1333 _1074_
*1334 _1075_
*1335 _1076_
*1336 _1077_
*1337 _1078_
*1338 _1079_
*1339 _1080_
*1340 _1081_
*1341 _1082_
*1342 _1083_
*1343 _1084_
*1344 _1085_
*1345 _1086_
*1346 _1087_
*1347 _1088_
*1348 _1089_
*1349 _1090_
*1350 _1091_
*1351 _1092_
*1352 _1093_
*1353 _1094_
*1354 _1095_
*1355 _1096_
*1356 _1097_
*1357 _1098_
*1358 _1099_
*1359 _1100_
*1360 _1101_
*1361 _1102_
*1362 _1103_
*1363 _1104_
*1364 _1105_
*1365 _1106_
*1366 _1107_
*1367 _1108_
*1368 _1109_
*1369 _1110_
*1370 _1111_
*1371 _1112_
*1372 _1113_
*1373 _1114_
*1374 _1115_
*1375 _1116_
*1376 _1117_
*1377 _1118_
*1378 _1119_
*1379 _1120_
*1380 FILLER_0_72
*1381 _1122_
*1382 _1123_
*1383 _1124_
*1384 _1125_
*1385 _1126_
*1386 _1127_
*1387 _1128_
*1388 _1129_
*1389 _1130_
*1390 _1131_
*1391 _1132_
*1392 _1133_
*1393 _1134_
*1394 _1135_
*1395 _1136_
*1396 _1137_
*1397 _1138_
*1398 _1139_
*1399 _1140_
*1400 _1141_
*1401 _1142_
*1402 _1143_
*1403 _1144_
*1404 _1145_
*1405 _1146_
*1406 _1147_
*1407 _1148_
*1408 _1149_
*1409 _1150_
*1410 _1151_
*1411 _1152_
*1412 _1153_
*1413 _1154_
*1414 _1155_
*1415 _1156_
*1416 _1157_
*1417 _1158_
*1418 _1159_
*1419 _1160_
*1420 _1161_
*1421 _1162_
*1422 _1163_
*1423 _1164_
*1424 _1165_
*1425 _1166_
*1426 _1167_
*1427 _1168_
*1428 _1169_
*1429 _1170_
*1430 _1171_
*1431 _1172_
*1432 _1173_
*1433 _1174_
*1434 _1175_
*1435 _1176_
*1436 _1177_
*1437 _1178_
*1438 _1179_
*1439 _1180_
*1440 _1181_
*1441 _1182_
*1442 _1183_
*1443 _1184_
*1444 _1185_
*1445 _1186_
*1446 _1187_
*1447 _1188_
*1448 _1189_
*1449 _1190_
*1450 _1191_
*1451 _1192_
*1452 _1193_
*1453 _1194_
*1454 _1195_
*1455 _1196_
*1456 _1197_
*1457 _1198_
*1458 _1199_
*1459 _1200_
*1460 _1201_
*1461 _1202_
*1462 _1203_
*1463 _1204_
*1464 _1205_
*1465 _1206_
*1466 _1207_
*1467 _1208_
*1468 _1209_
*1469 _1210_
*1470 _1211_
*1471 _1212_
*1472 _1213_
*1473 _1214_
*1474 _1215_
*1475 _1216_
*1476 _1217_
*1477 _1218_
*1478 _1219_
*1479 _1220_
*1480 _1221_
*1481 _1222_
*1482 _1223_
*1483 _1224_
*1484 _1225_
*1485 _1226_
*1486 _1227_
*1487 _1228_
*1488 _1229_
*1489 _1230_
*1490 _1231_
*1491 _1232_
*1492 _1233_
*1493 _1234_
*1494 _1235_
*1495 _1236_
*1496 _1237_
*1497 _1238_
*1498 _1239_
*1499 _1240_
*1500 _1241_
*1501 _1242_
*1502 _1243_
*1503 _1244_
*1504 _1245_
*1505 _1246_
*1506 _1247_
*1507 _1248_
*1508 _1249_
*1509 _1250_
*1510 _1251_
*1511 _1252_
*1512 _1253_
*1513 _1254_
*1514 _1255_
*1515 _1256_
*1516 _1257_
*1517 _1258_
*1518 _1259_
*1519 _1260_
*1520 _1261_
*1521 _1262_
*1522 _1263_
*1523 _1264_
*1524 _1265_
*1525 _1266_
*1526 _1267_
*1527 _1268_
*1528 _1269_
*1529 _1270_
*1530 _1271_
*1531 _1272_
*1532 _1273_
*1533 _1274_
*1534 _1275_
*1535 _1276_
*1536 _1277_
*1537 _1278_
*1538 _1279_
*1539 _1280_
*1540 _1281_
*1541 _1282_
*1542 _1283_
*1543 _1284_
*1544 _1285_
*1545 _1286_
*1546 _1287_
*1547 _1288_
*1548 _1289_
*1549 _1290_
*1550 _1291_
*1551 _1292_
*1552 _1293_
*1553 _1294_
*1554 _1295_
*1555 _1296_
*1556 _1297_
*1557 _1298_
*1558 _1299_
*1559 _1300_
*1560 _1301_
*1561 _1302_
*1562 _1303_
*1563 _1304_
*1564 _1305_
*1565 _1306_
*1566 _1307_
*1567 _1308_
*1568 _1309_
*1569 _1310_
*1570 _1311_
*1571 _1312_
*1572 _1313_
*1573 _1314_
*1574 _1315_
*1575 _1316_
*1576 _1317_
*1577 _1318_
*1578 _1319_
*1579 _1320_
*1580 _1321_
*1581 _1322_
*1582 _1323_
*1583 _1324_
*1584 _1325_
*1585 _1326_
*1586 _1327_
*1587 _1328_
*1588 _1329_
*1589 _1330_
*1590 _1331_
*1591 _1332_
*1592 _1333_
*1593 _1334_
*1594 _1335_
*1595 _1336_
*1596 _1337_
*1597 _1338_
*1598 _1339_
*1599 _1340_
*1600 _1341_
*1601 _1342_
*1602 _1343_
*1603 _1344_
*1604 _1345_
*1605 _1346_
*1606 _1347_
*1607 _1348_
*1608 _1349_
*1609 _1350_
*1610 _1351_
*1611 _1352_
*1612 _1353_
*1613 _1354_
*1614 _1355_
*1615 _1356_
*1616 _1357_
*1617 _1358_
*1618 _1359_
*1619 _1360_
*1620 _1361_
*1621 _1362_
*1622 _1363_
*1623 _1364_
*1624 _1365_
*1625 _1366_
*1626 _1367_
*1627 _1368_
*1628 _1369_
*1629 _1370_
*1630 _1371_
*1631 _1372_
*1632 _1373_
*1633 _1374_
*1634 _1375_
*1635 _1376_
*1636 _1377_
*1637 _1378_
*1638 _1379_
*1639 _1380_
*1640 _1381_
*1641 _1382_
*1642 _1383_
*1643 _1384_
*1644 _1385_
*1645 _1386_
*1646 _1387_
*1647 _1388_
*1648 _1389_
*1649 _1390_
*1650 _1391_
*1651 _1392_
*1652 _1393_
*1653 _1394_
*1654 _1395_
*1655 _1396_
*1656 _1397_
*1657 _1398_
*1658 _1399_
*1659 _1400_
*1660 _1401_
*1661 _1402_
*1662 _1403_
*1663 _1404_
*1664 _1405_
*1665 _1406_
*1666 _1407_
*1667 _1408_
*1668 _1409_
*1669 _1410_
*1670 _1411_
*1671 _1412_
*1672 _1413_
*1673 _1414_
*1674 _1415_
*1675 _1416_
*1676 _1417_
*1677 _1418_
*1678 _1419_
*1679 _1420_
*1680 _1421_
*1681 _1422_
*1682 _1423_
*1683 _1424_
*1684 _1425_
*1685 _1426_
*1686 _1427_
*1687 _1428_
*1688 _1429_
*1689 _1430_
*1690 _1431_
*1691 _1432_
*1692 _1433_
*1693 _1434_
*1694 _1435_
*1695 _1436_
*1696 _1437_
*1697 _1438_
*1698 _1439_
*1699 _1440_
*1700 _1441_
*1701 _1442_
*1702 _1443_
*1703 _1444_
*1704 _1445_
*1705 _1446_
*1706 _1447_
*1707 _1448_
*1708 _1449_
*1709 _1450_
*1710 _1451_
*1711 _1452_
*1712 _1453_
*1713 _1454_
*1714 _1455_
*1715 _1456_
*1716 _1457_
*1717 _1458_
*1718 _1459_
*1719 _1460_
*1720 _1461_
*1721 _1462_
*1722 _1463_
*1723 _1464_
*1724 _1465_
*1725 _1466_
*1726 _1467_
*1727 _1468_
*1728 _1469_
*1729 _1470_
*1730 _1471_
*1731 _1472_
*1732 _1473_
*1733 _1474_
*1734 _1475_
*1735 _1476_
*1736 _1477_
*1737 _1478_
*1738 _1479_
*1739 _1480_
*1740 _1481_
*1741 _1482_
*1742 _1483_
*1743 _1484_
*1744 _1485_
*1745 _1486_
*1746 _1487_
*1747 _1488_
*1748 _1489_
*1749 _1490_
*1750 _1491_
*1751 _1492_
*1752 _1493_
*1753 _1494_
*1754 _1495_
*1755 _1496_
*1756 _1497_
*1757 _1498_
*1758 _1499_
*1759 _1500_
*1760 _1501_
*1761 _1502_
*1762 _1503_
*1763 _1504_
*1764 _1505_
*1765 _1506_
*1766 _1507_
*1767 _1508_
*1768 _1509_
*1769 _1510_
*1770 _1511_
*1771 _1512_
*1772 _1513_
*1773 _1514_
*1774 _1515_
*1775 _1516_
*1776 _1517_
*1777 _1518_
*1778 _1519_
*1779 _1520_
*1780 _1521_
*1781 _1522_
*1782 _1523_
*1783 _1524_
*1784 _1525_
*1785 _1526_
*1786 _1527_
*1787 _1528_
*1788 _1529_
*1789 _1530_
*1790 _1531_
*1791 _1532_
*1792 _1533_
*1793 _1534_
*1794 _1535_
*1795 _1536_
*1796 _1537_
*1797 _1538_
*1798 _1539_
*1799 _1540_
*1800 _1541_
*1801 _1542_
*1802 _1543_
*1803 _1544_
*1804 _1545_
*1805 _1546_
*1806 _1547_
*1807 _1548_
*1808 _1549_
*1809 _1550_
*1810 _1551_
*1811 _1552_
*1812 _1553_
*1813 _1554_
*1814 _1555_
*1815 _1556_
*1816 _1557_
*1817 _1558_
*1818 _1559_
*1819 _1560_
*1820 _1561_
*1821 _1562_
*1822 _1563_
*1823 _1564_
*1824 _1565_
*1825 _1566_
*1826 _1567_
*1827 _1568_
*1828 _1569_
*1829 _1570_
*1830 _1571_
*1831 _1572_
*1832 _1573_
*1833 _1574_
*1834 _1575_
*1835 _1576_
*1836 _1577_
*1837 _1578_
*1838 _1579_
*1839 _1580_
*1840 _1581_
*1841 _1582_
*1842 _1583_
*1843 _1584_
*1844 _1585_
*1845 _1586_
*1846 _1587_
*1847 _1588_
*1848 _1589_
*1849 _1590_
*1850 _1591_
*1851 _1592_
*1852 _1593_
*1853 _1594_
*1854 _1595_
*1855 _1596_
*1856 _1597_
*1857 _1598_
*1858 _1599_
*1859 _1600_
*1860 _1601_
*1861 _1602_
*1862 _1603_
*1863 _1604_
*1864 _1605_
*1865 _1606_
*1866 _1607_
*1867 _1608_
*1868 _1609_
*1869 _1610_
*1870 _1611_
*1871 _1612_
*1872 _1613_
*1873 _1614_
*1874 _1615_
*1875 _1616_
*1876 _1617_
*1877 _1618_
*1878 _1619_
*1879 _1620_
*1880 _1621_
*1881 _1622_
*1882 _1623_
*1883 _1624_
*1884 _1625_
*1885 _1626_
*1886 _1627_
*1887 _1628_
*1888 _1629_
*1889 _1630_
*1890 _1631_
*1891 _1632_
*1892 _1633_
*1893 _1634_
*1894 _1635_
*1895 _1636_
*1896 _1637_
*1897 _1638_
*1898 _1639_
*1899 _1640_
*1900 _1641_
*1901 _1642_
*1902 _1643_
*1903 _1644_
*1904 _1645_
*1905 _1646_
*1906 _1647_
*1907 _1648_
*1908 _1649_
*1909 _1650_
*1910 _1651_
*1911 _1652_
*1912 _1653_
*1913 _1654_
*1914 _1655_
*1915 _1656_
*1916 _1657_
*1917 _1658_
*1918 FILLER_0_64
*1919 _1660_
*1920 FILLER_0_59
*1921 _1662_
*1922 _1663_
*1923 _1664_
*1924 _1665_
*1925 _1666_
*1926 _1667_
*1927 _1668_
*1928 _1669_
*1929 _1670_
*1930 _1671_
*1931 _1672_
*1932 _1673_
*1933 _1674_
*1934 _1675_
*1935 _1676_
*1936 _1677_
*1937 _1678_
*1938 _1679_
*1939 _1680_
*1940 _1681_
*1941 _1682_
*1942 _1683_
*1943 _1684_
*1944 _1685_
*1945 _1686_
*1946 _1687_
*1947 _1688_
*1948 _1689_
*1949 _1690_
*1950 _1691_
*1951 _1692_
*1952 _1693_
*1953 _1694_
*1954 _1695_
*1955 _1696_
*1956 _1697_
*1957 _1698_
*1958 _1699_
*1959 _1700_
*1960 _1701_
*1961 _1702_
*1962 _1703_
*1963 _1704_
*1964 _1705_
*1965 _1706_
*1966 _1707_
*1967 _1708_
*1968 _1709_
*1969 _1710_
*1970 _1711_
*1971 _1712_
*1972 _1713_
*1973 _1714_
*1974 _1715_
*1975 _1716_
*1976 _1717_
*1977 _1718_
*1978 _1719_
*1979 _1720_
*1980 _1721_
*1981 _1722_
*1982 _1723_
*1983 _1724_
*1984 _1725_
*1985 _1726_
*1986 _1727_
*1987 _1728_
*1988 _1729_
*1989 _1730_
*1990 _1731_
*1991 _1732_
*1992 _1733_
*1993 _1734_
*1994 _1735_
*1995 _1736_
*1996 _1737_
*1997 _1738_
*1998 _1739_
*1999 _1740_
*2000 _1741_
*2001 _1742_
*2002 _1743_
*2003 _1744_
*2004 _1745_
*2005 _1746_
*2006 _1747_
*2007 _1748_
*2008 _1749_
*2009 _1750_
*2010 _1751_
*2011 _1752_
*2012 _1753_
*2013 _1754_
*2014 _1755_
*2015 _1756_
*2016 _1757_
*2017 _1758_
*2018 _1759_
*2019 _1760_
*2020 _1761_
*2021 _1762_
*2022 _1763_
*2023 _1764_
*2024 _1765_
*2025 _1766_
*2026 _1767_
*2027 _1768_
*2028 _1769_
*2029 _1770_
*2030 _1771_
*2031 _1772_
*2032 _1773_
*2033 _1774_
*2034 _1775_
*2035 _1776_
*2036 _1777_
*2037 _1778_
*2038 _1779_
*2039 _1780_
*2040 _1781_
*2041 _1782_
*2042 _1783_
*2043 _1784_
*2044 _1785_
*2045 _1786_
*2046 _1787_
*2047 _1788_
*2048 _1789_
*2049 _1790_
*2050 _1791_
*2051 _1792_
*2052 _1793_
*2053 _1794_
*2054 _1795_
*2055 _1796_
*2056 _1797_
*2057 _1798_
*2058 _1799_
*2059 _1800_
*2060 _1801_
*2061 _1802_
*2062 _1803_
*2063 _1804_
*2064 _1805_
*2065 _1806_
*2066 _1807_
*2067 _1808_
*2068 _1809_
*2069 _1810_
*2070 _1811_
*2071 _1812_
*2072 _1813_
*2073 _1814_
*2074 _1815_
*2075 _1816_
*2076 _1817_
*2077 _1818_
*2078 _1819_
*2079 _1820_
*2080 _1821_
*2081 _1822_
*2082 _1823_
*2083 _1824_
*2084 _1825_
*2085 _1826_
*2086 _1827_
*2087 _1828_
*2088 _1829_
*2089 _1830_
*2090 _1831_
*2091 _1832_
*2092 _1833_
*2093 _1834_
*2094 _1835_
*2095 _1836_
*2096 _1837_
*2097 _1838_
*2098 _1839_
*2099 _1840_
*2100 _1841_
*2101 _1842_
*2102 _1843_
*2103 _1844_
*2104 _1845_
*2105 _1846_
*2106 _1847_
*2107 _1848_
*2108 _1849_
*2109 _1850_
*2110 _1851_
*2111 _1852_
*2112 _1853_
*2113 _1854_
*2114 _1855_
*2115 _1856_
*2116 _1857_
*2117 _1858_
*2118 _1859_
*2119 _1860_
*2120 _1861_
*2121 _1862_
*2122 _1863_
*2123 _1864_
*2124 TAP_TAPCELL_ROW_0_0
*2125 FILLER_0_55
*2126 FILLER_0_47
*2127 FILLER_0_39
*2128 FILLER_0_31
*2129 FILLER_0_28
*2130 FILLER_0_24
*2131 FILLER_0_16
*2132 FILLER_0_8
*2133 FILLER_0_0
*2134 clkload6
*2135 clkload5
*2136 clkload4
*2137 clkload3
*2138 clkload2
*2139 clkload1
*2140 clkload0
*2141 clkbuf_3_7__f_clk
*2142 clkbuf_3_6__f_clk
*2143 clkbuf_3_5__f_clk
*2144 clkbuf_3_4__f_clk
*2145 clkbuf_3_3__f_clk
*2146 clkbuf_3_2__f_clk
*2147 clkbuf_3_1__f_clk
*2148 clkbuf_3_0__f_clk
*2149 clkbuf_0_clk
*2150 place50
*2151 place49
*2152 place48
*2153 place43
*2154 place52
*2155 place51
*2156 place47
*2157 place46
*2158 place45
*2159 place44
*2160 input36
*2161 count\[0\]\$_SDFF_PP0_
*2162 count\[1\]\$_SDFF_PP0_
*2163 count\[2\]\$_SDFF_PP0_
*2164 jmp_flag\$_SDFFE_PP0P_
*2165 state\[0\]\$_SDFF_PP0_
*2166 state\[1\]\$_SDFF_PP0_
*2167 state\[2\]\$_SDFF_PP0_
*2168 stop\$_SDFFE_PP0P_
*2169 zero\$_SDFFE_PP0P_
*2170 _1866__1
*2171 _1867__2
*2172 _1868__3
*2173 _1869__4
*2174 _1870__5
*2175 _1871__6
*2176 _1872__7
*2177 _1873__8
*2178 _1874__9
*2179 _1875__10
*2180 _1876__11
*2181 _1877__12
*2182 _1878__13
*2183 _1879__14
*2184 _1880__15
*2185 _1881__16
*2186 _1882__17
*2187 _1883__18
*2188 _1884__19
*2189 _1885__20
*2190 _1886__21
*2191 _1887__22
*2192 _1888__23
*2193 _1889__24
*2194 _1890__25
*2195 _1891__26
*2196 _1892__27
*2197 _1893__28
*2198 _1894__29
*2199 _1895__30
*2200 _1896__31
*2201 _1897__32
*2202 _1898__33